#!/data/adb/magisk/busybox ash
. "${MODPATH}/scripts/parse_cfgfile.sh"
. "${MODPATH}/scripts/load_animation.sh"
. "${MODPATH}/scripts/telem.sh"
